Input Parameters:
   integrator                     = md
   tinit                          = 0
   dt                             = 0.01
   nsteps                         = 2000000
   init-step                      = 0
   simulation-part                = 1
   comm-mode                      = Linear
   nstcomm                        = 1000
   bd-fric                        = 0
   ld-seed                        = 1830431913
   emtol                          = 10
   emstep                         = 0.01
   niter                          = 20
   fcstep                         = 0
   nstcgsteep                     = 1000
   nbfgscorr                      = 10
   rtpi                           = 0.05
   nstxout                        = 0
   nstvout                        = 0
   nstfout                        = 0
   nstlog                         = 10000
   nstcalcenergy                  = 100
   nstenergy                      = 10000
   nstxout-compressed             = 5000
   compressed-x-precision         = 100
   cutoff-scheme                  = Verlet
   nstlist                        = 40
   ns-type                        = Grid
   pbc                            = xyz
   periodic-molecules             = FALSE
   verlet-buffer-tolerance        = 0.005
   rlist                          = 1.1
   rlistlong                      = 1.1
   nstcalclr                      = 20
   coulombtype                    = PME
   coulomb-modifier               = Potential-shift
   rcoulomb-switch                = 0
   rcoulomb                       = 1.1
   epsilon-r                      = 2.5
   epsilon-rf                     = inf
   vdw-type                       = Cut-off
   vdw-modifier                   = Potential-shift
   rvdw-switch                    = 0.9
   rvdw                           = 1.1
   DispCorr                       = No
   table-extension                = 1
   fourierspacing                 = 0.12
   fourier-nx                     = 52
   fourier-ny                     = 52
   fourier-nz                     = 96
   pme-order                      = 4
   ewald-rtol                     = 1e-05
   ewald-rtol-lj                  = 0.001
   lj-pme-comb-rule               = Geometric
   ewald-geometry                 = 0
   epsilon-surface                = 0
   implicit-solvent               = No
   gb-algorithm                   = Still
   nstgbradii                     = 1
   rgbradii                       = 1
   gb-epsilon-solvent             = 80
   gb-saltconc                    = 0
   gb-obc-alpha                   = 1
   gb-obc-beta                    = 0.8
   gb-obc-gamma                   = 4.85
   gb-dielectric-offset           = 0.009
   sa-algorithm                   = Ace-approximation
   sa-surface-tension             = 2.05016
   tcoupl                         = V-rescale
   nsttcouple                     = 20
   nh-chain-length                = 0
   print-nose-hoover-chain-variables = FALSE
   pcoupl                         = Berendsen
   pcoupltype                     = Semiisotropic
   nstpcouple                     = 20
   tau-p                          = 5
   compressibility (3x3):
      compressibility[    0]={ 3.00000e-04,  0.00000e+00,  0.00000e+00}
      compressibility[    1]={ 0.00000e+00,  3.00000e-04,  0.00000e+00}
      compressibility[    2]={ 0.00000e+00,  0.00000e+00,  3.00000e-04}
   ref-p (3x3):
      ref-p[    0]={ 1.00000e+00,  0.00000e+00,  0.00000e+00}
      ref-p[    1]={ 0.00000e+00,  1.00000e+00,  0.00000e+00}
      ref-p[    2]={ 0.00000e+00,  0.00000e+00,  1.00000e+00}
   refcoord-scaling               = No
   posres-com (3):
      posres-com[0]= 0.00000e+00
      posres-com[1]= 0.00000e+00
      posres-com[2]= 0.00000e+00
   posres-comB (3):
      posres-comB[0]= 0.00000e+00
      posres-comB[1]= 0.00000e+00
      posres-comB[2]= 0.00000e+00
   QMMM                           = FALSE
   QMconstraints                  = 0
   QMMMscheme                     = 0
   MMChargeScaleFactor            = 1
qm-opts:
   ngQM                           = 0
   constraint-algorithm           = Lincs
   continuation                   = FALSE
   Shake-SOR                      = FALSE
   shake-tol                      = 0.0001
   lincs-order                    = 1
   lincs-iter                     = 1
   lincs-warnangle                = 30
   nwall                          = 0
   wall-type                      = 9-3
   wall-r-linpot                  = -1
   wall-atomtype[0]               = -1
   wall-atomtype[1]               = -1
   wall-density[0]                = 0
   wall-density[1]                = 0
   wall-ewald-zfac                = 3
   pull                           = umbrella
   pull-geometry                  = distance
   pull-dim (3):
      pull-dim[0]=0
      pull-dim[1]=0
      pull-dim[2]=1
   pull-r1                        = 1
   pull-r0                        = 1.5
   pull-constr-tol                = 1e-06
   pull-print-reference           = FALSE
   pull-nstxout                   = 1000
   pull-nstfout                   = 1000
   pull-ngroups                   = 4
   pull-group 0:
     atom: not available
     weight: not available
     pbcatom                        = -1
   pull-group 1:
     atom (1416):
        atom[0,...,1415] = {14,...,1429}
     weight: not available
     pbcatom                        = 721
   pull-group 2:
     atom (1):
        atom[0]=2
     weight: not available
     pbcatom                        = -1
   pull-group 3:
     atom (1):
        atom[0]=9
     weight: not available
     pbcatom                        = -1
   pull-ncoords                   = 2
   pull-coord 0:
   group[0]                       = 2
   group[1]                       = 1
   origin (3):
      origin[0]= 0.00000e+00
      origin[1]= 0.00000e+00
      origin[2]= 0.00000e+00
   vec (3):
      vec[0]= 0.00000e+00
      vec[1]= 0.00000e+00
      vec[2]= 0.00000e+00
   init                           = 3.3
   rate                           = 0
   k                              = 1000
   kB                             = 1000
   pull-coord 1:
   group[0]                       = 3
   group[1]                       = 1
   origin (3):
      origin[0]= 0.00000e+00
      origin[1]= 0.00000e+00
      origin[2]= 0.00000e+00
   vec (3):
      vec[0]= 0.00000e+00
      vec[1]= 0.00000e+00
      vec[2]= 0.00000e+00
   init                           = 0.8
   rate                           = 0
   k                              = 1000
   kB                             = 1000
   rotation                       = FALSE
   interactiveMD                  = FALSE
   disre                          = No
   disre-weighting                = Conservative
   disre-mixed                    = FALSE
   dr-fc                          = 1000
   dr-tau                         = 0
   nstdisreout                    = 100
   orire-fc                       = 0
   orire-tau                      = 0
   nstorireout                    = 100
   free-energy                    = no
   cos-acceleration               = 0
   deform (3x3):
      deform[    0]={ 0.00000e+00,  0.00000e+00,  0.00000e+00}
      deform[    1]={ 0.00000e+00,  0.00000e+00,  0.00000e+00}
      deform[    2]={ 0.00000e+00,  0.00000e+00,  0.00000e+00}
   simulated-tempering            = FALSE
   E-x:
      n = 0
   E-xt:
      n = 0
   E-y:
      n = 0
   E-yt:
      n = 0
   E-z:
      n = 0
   E-zt:
      n = 0
   swapcoords                     = no
   adress                         = FALSE
   userint1                       = 0
   userint2                       = 0
   userint3                       = 0
   userint4                       = 0
   userreal1                      = 0
   userreal2                      = 0
   userreal3                      = 0
   userreal4                      = 0
grpopts:
   nrdf:     14.9975     14.9975      4247.3     13696.8     347.943
   ref-t:          10          10          10          10          10
   tau-t:           1           1           1           1           1
annealing:      Single      Single      Single      Single      Single
annealing-npoints:           2           2           2           2           2
annealing-time [0]:	         0.0      2500.0
annealing-temp [0]:	         0.0       300.0
annealing-time [1]:	         0.0      2500.0
annealing-temp [1]:	         0.0       300.0
annealing-time [2]:	         0.0      2500.0
annealing-temp [2]:	         0.0       300.0
annealing-time [3]:	         0.0      2500.0
annealing-temp [3]:	         0.0       300.0
annealing-time [4]:	         0.0      2500.0
annealing-temp [4]:	         0.0       300.0
   acc:	           0           0           0
   nfreeze:           N           N           N
   energygrp-flags[  0]: 0 0 0 0 0
   energygrp-flags[  1]: 0 0 0 0 0
   energygrp-flags[  2]: 0 0 0 0 0
   energygrp-flags[  3]: 0 0 0 0 0
   energygrp-flags[  4]: 0 0 0 0 0
Using 1 MPI thread
Using 4 OpenMP threads

Detecting CPU SIMD instructions.
Present hardware specification:
Vendor: GenuineIntel
Brand:  Intel(R) Xeon(R) CPU           X5667  @ 3.07GHz
Family:  6  Model: 44  Stepping:  2
Features: apic clfsh cmov cx8 cx16 htt lahf_lm mmx msr nonstop_tsc pcid pdcm pdpe1gb popcnt pse rdtscp sse2 sse3 sse4.1 sse4.2 ssse3
SIMD instructions most likely to fit this hardware: SSE4.1
SIMD instructions selected at GROMACS compile time: SSE4.1

Will do PME sum in reciprocal space for electrostatic interactions.

Will do ordinary reciprocal space Ewald sum.
Using a Gaussian width (1/beta) of 0.352179 nm for Ewald
Cut-off's:   NS: 1.1   Coulomb: 1.1   LJ: 1.1
System total charge: 0.000
Generated table with 1050 data points for Ewald.
Tabscale = 500 points/nm
Generated table with 1050 data points for LJ6.
Tabscale = 500 points/nm
Generated table with 1050 data points for LJ12.
Tabscale = 500 points/nm

Using SSE4.1 4x4 non-bonded kernels

Using full Lennard-Jones parameter combination matrix

Potential shift: LJ r^-12: -3.186e-01 r^-6: -5.645e-01, Ewald -1.000e-05
Initialized non-bonded Ewald correction tables, spacing: 9.79e-04 size: 2147

Removing pbc first time

NOTE: The number of threads is not equal to the number of (logical) cores
      and the -pin option is set to auto: will not pin thread to cores.
      This can lead to significant performance degradation.
      Consider using -pin on (and -pinoffset in case you run multiple jobs).

Will apply umbrella COM pulling in geometry 'distance'
with 2 pull coordinates and 4 groups
Pull group 1:  1416 atoms, mass 101952.000
Pull group 2:     1 atoms, mass    75.000
Pull group 3:     1 atoms, mass    75.000

Initializing LINear Constraint Solver

The number of constraints is 3914
Center of mass motion removal mode is Linear
We have the following groups for center of mass motion removal:
  0:  rest

There are: 7413 Atoms
There are: 4 VSites

Constraining the starting coordinates (step 0)

Constraining the coordinates at t0-dt (step 0)
RMS relative constraint deviation after constraining: 1.42e-04
Initial temperature: 9.97773 K

Started mdrun on rank 0 Fri Feb 23 23:01:49 2018
           Step           Time         Lambda
              0        0.00000        0.00000

   Energies (kJ/mol)
           Bond       G96Angle        LJ (SR)   Coulomb (SR)   Coul. recip.
    1.55894e+03    1.10877e+04   -6.92213e+04   -7.73016e+04    6.97671e+03
    3.05524e+01   -1.26869e+05    7.65440e+02   -1.26104e+05    1.00492e+01
   -1.71562e+03    3.04487e-04

	<====  A V E R A G E S  ====>

	Statistics over 2000001 steps using 20001 frames

Current ref_t for group MOL:    300.0
Current ref_t for group MON:    300.0
Current ref_t for group POPG:    300.0
Current ref_t for group PW:    300.0
Current ref_t for group ION:    300.0
   Energies (kJ/mol)
           Bond       G96Angle        LJ (SR)   Coulomb (SR)   Coul. recip.
    2.05197e+03    8.79956e+03   -7.02948e+04   -5.43413e+04    3.89953e+03
   COM Pull En.      Potential    Kinetic En.   Total Energy    Temperature
    5.07090e+00   -1.09880e+05    2.13091e+04   -8.85709e+04    2.79760e+02
 Pressure (bar)   Constr. rmsd
    1.08875e+00    0.00000e+00

          Box-X          Box-Y          Box-Z
    6.36457e+00    6.36457e+00    9.36301e+00

   Total Virial (kJ/mol)
    7.09521e+03   -2.98102e+01    1.87614e+01
   -2.98102e+01    7.12464e+03   -5.80513e-01
    1.87615e+01   -5.80513e-01    7.05303e+03

   Pressure (bar)
    2.85957e+00    2.72961e+00   -1.89530e+00
    2.72961e+00   -2.92176e-01   -5.49730e-02
   -1.89530e+00   -5.49728e-02    6.98864e-01

  Epot (kJ/mol)        Coul-SR          LJ-SR
        MOL-MOL   -8.90297e+01   -6.06155e+00
        MOL-MON    0.00000e+00    0.00000e+00
       MOL-POPG   -5.24487e-04   -1.53984e+00
         MOL-PW   -2.14804e+01   -1.80938e+02
        MOL-ION    2.35950e-01   -3.43238e+00
        MON-MON   -8.90297e+01   -6.03818e+00
       MON-POPG   -6.25380e+00   -2.01722e+02
         MON-PW   -3.94310e+00   -1.86113e+01
        MON-ION    1.15672e-01   -3.56989e+00
      POPG-POPG   -1.04427e+04   -1.99350e+04
        POPG-PW   -1.82072e+03   -8.98059e+03
       POPG-ION   -1.19976e+03   -2.70978e+03
          PW-PW   -2.85766e+04   -3.47387e+04
         PW-ION   -1.79786e+03   -3.42978e+03
        ION-ION   -1.02943e+04   -7.90903e+01

          T-MOL          T-MON         T-POPG           T-PW
    2.78955e+02    2.79977e+02    2.79127e+02    2.79957e+02
          T-ION
    2.79741e+02
