Input Parameters:
   integrator                     = md
   tinit                          = 0
   dt                             = 0.02
   nsteps                         = 10000000
   init-step                      = 0
   simulation-part                = 1
   comm-mode                      = Linear
   nstcomm                        = 1000
   bd-fric                        = 0
   ld-seed                        = 1513337037
   emtol                          = 10
   emstep                         = 0.01
   niter                          = 20
   fcstep                         = 0
   nstcgsteep                     = 1000
   nbfgscorr                      = 10
   rtpi                           = 0.05
   nstxout                        = 0
   nstvout                        = 0
   nstfout                        = 0
   nstlog                         = 30000
   nstcalcenergy                  = 100
   nstenergy                      = 30000
   nstxout-compressed             = 30000
   compressed-x-precision         = 100
   cutoff-scheme                  = Verlet
   nstlist                        = 20
   ns-type                        = Grid
   pbc                            = xyz
   periodic-molecules             = FALSE
   verlet-buffer-tolerance        = 0.005
   rlist                          = 1.227
   rlistlong                      = 1.227
   nstcalclr                      = 20
   coulombtype                    = PME
   coulomb-modifier               = Potential-shift
   rcoulomb-switch                = 0
   rcoulomb                       = 1.1
   epsilon-r                      = 2.5
   epsilon-rf                     = inf
   vdw-type                       = Cut-off
   vdw-modifier                   = Potential-shift
   rvdw-switch                    = 0
   rvdw                           = 1.1
   DispCorr                       = No
   table-extension                = 1
   fourierspacing                 = 0.12
   fourier-nx                     = 56
   fourier-ny                     = 56
   fourier-nz                     = 84
   pme-order                      = 4
   ewald-rtol                     = 1e-05
   ewald-rtol-lj                  = 0.001
   lj-pme-comb-rule               = Geometric
   ewald-geometry                 = 0
   epsilon-surface                = 0
   implicit-solvent               = No
   gb-algorithm                   = Still
   nstgbradii                     = 1
   rgbradii                       = 1
   gb-epsilon-solvent             = 80
   gb-saltconc                    = 0
   gb-obc-alpha                   = 1
   gb-obc-beta                    = 0.8
   gb-obc-gamma                   = 4.85
   gb-dielectric-offset           = 0.009
   sa-algorithm                   = Ace-approximation
   sa-surface-tension             = 2.05016
   tcoupl                         = V-rescale
   nsttcouple                     = 20
   nh-chain-length                = 0
   print-nose-hoover-chain-variables = FALSE
   pcoupl                         = Parrinello-Rahman
   pcoupltype                     = Semiisotropic
   nstpcouple                     = 20
   tau-p                          = 12
   compressibility (3x3):
      compressibility[    0]={ 3.00000e-04,  0.00000e+00,  0.00000e+00}
      compressibility[    1]={ 0.00000e+00,  3.00000e-04,  0.00000e+00}
      compressibility[    2]={ 0.00000e+00,  0.00000e+00,  3.00000e-04}
   ref-p (3x3):
      ref-p[    0]={ 1.00000e+00,  0.00000e+00,  0.00000e+00}
      ref-p[    1]={ 0.00000e+00,  1.00000e+00,  0.00000e+00}
      ref-p[    2]={ 0.00000e+00,  0.00000e+00,  1.00000e+00}
   refcoord-scaling               = No
   posres-com (3):
      posres-com[0]= 0.00000e+00
      posres-com[1]= 0.00000e+00
      posres-com[2]= 0.00000e+00
   posres-comB (3):
      posres-comB[0]= 0.00000e+00
      posres-comB[1]= 0.00000e+00
      posres-comB[2]= 0.00000e+00
   QMMM                           = FALSE
   QMconstraints                  = 0
   QMMMscheme                     = 0
   MMChargeScaleFactor            = 1
qm-opts:
   ngQM                           = 0
   constraint-algorithm           = Lincs
   continuation                   = TRUE
   Shake-SOR                      = FALSE
   shake-tol                      = 0.0001
   lincs-order                    = 1
   lincs-iter                     = 1
   lincs-warnangle                = 30
   nwall                          = 0
   wall-type                      = 9-3
   wall-r-linpot                  = -1
   wall-atomtype[0]               = -1
   wall-atomtype[1]               = -1
   wall-density[0]                = 0
   wall-density[1]                = 0
   wall-ewald-zfac                = 3
   pull                           = umbrella
   pull-geometry                  = distance
   pull-dim (3):
      pull-dim[0]=0
      pull-dim[1]=0
      pull-dim[2]=1
   pull-r1                        = 1
   pull-r0                        = 1.5
   pull-constr-tol                = 1e-06
   pull-print-reference           = FALSE
   pull-nstxout                   = 1000
   pull-nstfout                   = 1000
   pull-ngroups                   = 4
   pull-group 0:
     atom: not available
     weight: not available
     pbcatom                        = -1
   pull-group 1:
     atom (1416):
        atom[0,...,1415] = {14,...,1429}
     weight: not available
     pbcatom                        = 721
   pull-group 2:
     atom (1):
        atom[0]=2
     weight: not available
     pbcatom                        = -1
   pull-group 3:
     atom (1):
        atom[0]=9
     weight: not available
     pbcatom                        = -1
   pull-ncoords                   = 2
   pull-coord 0:
   group[0]                       = 2
   group[1]                       = 1
   origin (3):
      origin[0]= 0.00000e+00
      origin[1]= 0.00000e+00
      origin[2]= 0.00000e+00
   vec (3):
      vec[0]= 0.00000e+00
      vec[1]= 0.00000e+00
      vec[2]= 0.00000e+00
   init                           = 2.3
   rate                           = 0
   k                              = 1000
   kB                             = 1000
   pull-coord 1:
   group[0]                       = 3
   group[1]                       = 1
   origin (3):
      origin[0]= 0.00000e+00
      origin[1]= 0.00000e+00
      origin[2]= 0.00000e+00
   vec (3):
      vec[0]= 0.00000e+00
      vec[1]= 0.00000e+00
      vec[2]= 0.00000e+00
   init                           = 1.8
   rate                           = 0
   k                              = 1000
   kB                             = 1000
   rotation                       = FALSE
   interactiveMD                  = FALSE
   disre                          = No
   disre-weighting                = Conservative
   disre-mixed                    = FALSE
   dr-fc                          = 1000
   dr-tau                         = 0
   nstdisreout                    = 100
   orire-fc                       = 0
   orire-tau                      = 0
   nstorireout                    = 100
   free-energy                    = no
   cos-acceleration               = 0
   deform (3x3):
      deform[    0]={ 0.00000e+00,  0.00000e+00,  0.00000e+00}
      deform[    1]={ 0.00000e+00,  0.00000e+00,  0.00000e+00}
      deform[    2]={ 0.00000e+00,  0.00000e+00,  0.00000e+00}
   simulated-tempering            = FALSE
   E-x:
      n = 0
   E-xt:
      n = 0
   E-y:
      n = 0
   E-yt:
      n = 0
   E-z:
      n = 0
   E-zt:
      n = 0
   swapcoords                     = no
   adress                         = FALSE
   userint1                       = 0
   userint2                       = 0
   userint3                       = 0
   userint4                       = 0
   userreal1                      = 0
   userreal2                      = 0
   userreal3                      = 0
   userreal4                      = 0
grpopts:
   nrdf:     14.9975     14.9975      4247.3     13696.8     347.943
   ref-t:         300         300         300         300         300
   tau-t:           1           1           1           1           1
annealing:          No          No          No          No          No
annealing-npoints:           0           0           0           0           0
   acc:	           0           0           0
   nfreeze:           N           N           N
   energygrp-flags[  0]: 0 0 0 0 0
   energygrp-flags[  1]: 0 0 0 0 0
   energygrp-flags[  2]: 0 0 0 0 0
   energygrp-flags[  3]: 0 0 0 0 0
   energygrp-flags[  4]: 0 0 0 0 0
Using 1 MPI thread
Using 4 OpenMP threads

Detecting CPU SIMD instructions.
Present hardware specification:
Vendor: GenuineIntel
Brand:  Intel(R) Xeon(R) CPU           X5570  @ 2.93GHz
Family:  6  Model: 26  Stepping:  5
Features: apic clfsh cmov cx8 cx16 htt lahf_lm mmx msr nonstop_tsc pdcm popcnt pse rdtscp sse2 sse3 sse4.1 sse4.2 ssse3
SIMD instructions most likely to fit this hardware: SSE4.1
SIMD instructions selected at GROMACS compile time: SSE4.1

Will do PME sum in reciprocal space for electrostatic interactions.

Will do ordinary reciprocal space Ewald sum.
Using a Gaussian width (1/beta) of 0.352179 nm for Ewald
Cut-off's:   NS: 1.227   Coulomb: 1.1   LJ: 1.1
System total charge: 0.000
Generated table with 1113 data points for Ewald.
Tabscale = 500 points/nm
Generated table with 1113 data points for LJ6.
Tabscale = 500 points/nm
Generated table with 1113 data points for LJ12.
Tabscale = 500 points/nm

Using SSE4.1 4x4 non-bonded kernels

Using full Lennard-Jones parameter combination matrix

Potential shift: LJ r^-12: -3.186e-01 r^-6: -5.645e-01, Ewald -1.000e-05
Initialized non-bonded Ewald correction tables, spacing: 9.79e-04 size: 2277

NOTE: The number of threads is not equal to the number of (logical) cores
      and the -pin option is set to auto: will not pin thread to cores.
      This can lead to significant performance degradation.
      Consider using -pin on (and -pinoffset in case you run multiple jobs).

Will apply umbrella COM pulling in geometry 'distance'
with 2 pull coordinates and 4 groups
Pull group 1:  1416 atoms, mass 101952.000
Pull group 2:     1 atoms, mass    75.000
Pull group 3:     1 atoms, mass    75.000

Initializing LINear Constraint Solver

The number of constraints is 3914
Center of mass motion removal mode is Linear
We have the following groups for center of mass motion removal:
  0:  rest

There are: 7413 Atoms
There are: 4 VSites
Initial temperature: 302.398 K

Started mdrun on rank 0 Sat Feb 24 04:55:41 2018
           Step           Time         Lambda
              0        0.00000        0.00000

   Energies (kJ/mol)
           Bond       G96Angle        LJ (SR)   Coulomb (SR)   Coul. recip.
    2.07716e+03    8.52453e+03   -6.96484e+04   -5.20079e+04    4.00770e+03
    3.39806e+00   -1.07044e+05    2.32897e+04   -8.37538e+04    3.05763e+02
    9.33527e+01    9.46901e-04

	<====  A V E R A G E S  ====>

	Statistics over 10000001 steps using 100001 frames

   Energies (kJ/mol)
           Bond       G96Angle        LJ (SR)   Coulomb (SR)   Coul. recip.
    2.12831e+03    8.57828e+03   -6.97576e+04   -5.24800e+04    3.96635e+03
   COM Pull En.      Potential    Kinetic En.   Total Energy    Temperature
    3.71086e+00   -1.07561e+05    2.27241e+04   -8.48368e+04    2.98338e+02
 Pressure (bar)   Constr. rmsd
    8.93012e-01    0.00000e+00

          Box-X          Box-Y          Box-Z
    6.31080e+00    6.31080e+00    9.61795e+00

   Total Virial (kJ/mol)
    7.57580e+03   -3.36130e+00   -3.42785e+00
   -3.36130e+00    7.57580e+03   -1.12755e-01
   -3.42783e+00   -1.12759e-01    7.54857e+03

   Pressure (bar)
    9.20080e-01    3.00492e-01    2.69754e-01
    3.00491e-01    9.21952e-01   -3.28167e-02
    2.69753e-01   -3.28164e-02    8.37004e-01

  Epot (kJ/mol)        Coul-SR          LJ-SR
        MOL-MOL   -8.90297e+01   -5.52767e+00
        MOL-MON    0.00000e+00    0.00000e+00
       MOL-POPG   -1.02826e+01   -1.26890e+02
         MOL-PW   -4.85618e+00   -8.77742e+01
        MOL-ION    2.65261e-01   -6.82687e+00
        MON-MON   -8.90297e+01   -5.51220e+00
       MON-POPG   -9.42413e+00   -1.66253e+02
         MON-PW   -4.58469e+00   -5.56855e+01
        MON-ION    3.18292e-01   -8.37646e+00
      POPG-POPG   -1.04410e+04   -1.96000e+04
        POPG-PW   -1.61501e+03   -8.74195e+03
       POPG-ION   -1.29817e+03   -2.91521e+03
          PW-PW   -2.70167e+04   -3.47993e+04
         PW-ION   -1.60828e+03   -3.15503e+03
        ION-ION   -1.02942e+04   -8.32496e+01

          T-MOL          T-MON         T-POPG           T-PW
    3.00653e+02    3.00104e+02    2.99666e+02    2.97905e+02
          T-ION
    2.98962e+02
